/*--------------------------------*- C++ -*----------------------------------*\
  =========                 |
  \\      /  F ield         | OpenFOAM: The Open Source CFD Toolbox
   \\    /   O peration     | Website:  https://openfoam.org
    \\  /    A nd           | Version:  7
     \\/     M anipulation  |
\*---------------------------------------------------------------------------*/
FoamFile
{
    version     2.0;
    format      ascii;
    class       dictionary;
    location    "system";
    object      setFieldsDict;
}
// * * * * * * * * * * * * * * * * * * * * * * * * * * * * * * * * * * * * * //

defaultFieldValues
(
    volScalarFieldValue alpha.water 0
    volVectorFieldValue U (0 0 0)
);

regions
(
    sphereToCell
    {
        centre (0 0 0.3);
        radius 0.2;
        fieldValues
        (
            volScalarFieldValue alpha.water 1
        );
    }
    boxToCell
    {
        box (-0.7 -0.7 -0.7) (0.7 0.7 -0.3);

        fieldValues
        (
            volScalarFieldValue alpha.water 1
        );
    }



);


// ************************************************************************* //
